Version 4
SHEET 1 880 680
WIRE -784 -272 -896 -272
WIRE -608 -272 -704 -272
WIRE 416 -16 -48 -16
WIRE 528 0 480 0
WIRE 640 0 528 0
WIRE 416 16 336 16
WIRE -912 144 -976 144
WIRE -784 144 -848 144
WIRE -608 144 -784 144
WIRE -464 160 -544 160
WIRE -336 160 -464 160
WIRE -272 160 -336 160
WIRE -144 160 -208 160
WIRE -48 160 -48 -16
WIRE -48 160 -144 160
WIRE 32 160 -48 160
WIRE 160 160 112 160
WIRE 208 160 160 160
WIRE 336 160 336 16
WIRE 336 160 288 160
WIRE 384 160 336 160
WIRE 528 160 528 0
WIRE 528 160 464 160
WIRE 576 160 528 160
WIRE 704 160 640 160
WIRE -608 176 -688 176
WIRE -784 192 -784 144
WIRE -144 208 -144 160
WIRE -688 256 -688 176
WIRE -464 256 -464 160
WIRE -464 256 -688 256
WIRE 336 288 336 160
WIRE 336 288 272 288
WIRE 160 304 160 160
WIRE 208 304 160 304
WIRE 704 320 704 160
WIRE 704 320 272 320
WIRE -784 352 -784 272
WIRE -144 352 -144 288
WIRE -336 464 -336 160
WIRE 112 464 -336 464
WIRE 704 464 704 320
WIRE 704 464 192 464
FLAG -144 352 0
FLAG -608 -272 Vi
FLAG -896 -272 0
FLAG -784 352 0
FLAG 640 0 Vo
IOPIN 640 0 Out
FLAG -976 144 Vi
IOPIN -976 144 In
SYMBOL res -160 192 R0
SYMATTR InstName R2
SYMATTR Value ""
SYMBOL res 128 144 R90
WINDOW 0 -13 56 VCenter 2
WINDOW 3 52 54 VCenter 2
SYMATTR InstName R12
SYMATTR Value 1
SYMBOL res 304 144 R90
WINDOW 0 0 56 VBottom 2
WINDOW 3 32 56 VTop 2
SYMATTR InstName R22
SYMATTR Value ""
SYMBOL res 480 144 R90
WINDOW 0 0 56 VBottom 2
WINDOW 3 32 56 VTop 2
SYMATTR InstName R32
SYMATTR Value ""
SYMBOL res 208 448 R90
WINDOW 0 0 56 VBottom 2
WINDOW 3 66 56 VBottom 2
SYMATTR InstName R52
SYMBOL cap -208 144 R90
WINDOW 0 0 32 VBottom 2
WINDOW 3 32 32 VTop 2
SYMATTR InstName C2
SYMATTR Value ""
SYMATTR SpiceLine Rser=0
SYMBOL cap 640 144 R90
WINDOW 0 0 32 VBottom 2
WINDOW 3 32 32 VTop 2
SYMATTR InstName C42
SYMATTR Value ""
SYMATTR SpiceLine Rser=0
SYMBOL OpAmps\\opamp 240 240 M0
SYMATTR InstName U22
SYMBOL OpAmps\\opamp 448 64 M180
SYMATTR InstName U21
SYMBOL voltage -688 -272 R90
WINDOW 123 -82 129 VRight 2
WINDOW 39 -113 123 VRight 2
WINDOW 0 -56 47 VRight 2
SYMATTR Value2 AC 1 0
SYMATTR SpiceLine Rser=0
SYMATTR InstName V1
SYMATTR Value ""
SYMBOL OpAmps\\opamp -576 224 M180
SYMATTR InstName U12
SYMBOL cap -848 128 R90
WINDOW 0 0 32 VBottom 2
WINDOW 3 69 32 VBottom 2
SYMATTR InstName C1
SYMATTR Value 1
SYMATTR SpiceLine Rser=0
SYMBOL res -800 176 R0
WINDOW 3 36 68 Left 2
SYMATTR InstName R1
SYMATTR Value 1
TEXT -912 -120 Left 2 !.lib opamp.sub
TEXT -912 -152 Left 2 !.ac dec 1000 0.001 10
