Version 4
SHEET 1 880 680
WIRE 224 16 48 16
WIRE 368 16 224 16
WIRE 224 96 224 16
WIRE 368 96 368 16
WIRE 48 160 48 16
WIRE 224 224 224 160
WIRE 368 224 368 160
WIRE 48 368 48 240
WIRE 224 368 224 304
WIRE 224 368 48 368
WIRE 368 368 368 304
WIRE 368 368 224 368
WIRE 48 432 48 368
FLAG 48 432 0
SYMBOL cap 208 160 M180
WINDOW 0 24 56 Left 2
WINDOW 3 24 8 Left 2
SYMATTR InstName C1
SYMATTR Value {1/6}
SYMBOL cap 352 160 M180
WINDOW 0 24 56 Left 2
WINDOW 3 24 8 Left 2
SYMATTR InstName C2
SYMATTR Value {1/2}
SYMBOL ind 208 320 M180
WINDOW 0 36 80 Left 2
WINDOW 3 36 40 Left 2
SYMATTR InstName L1
SYMATTR Value 2
SYMBOL ind 352 320 M180
WINDOW 0 36 80 Left 2
WINDOW 3 36 40 Left 2
SYMATTR InstName L2
SYMATTR Value 2
SYMBOL voltage 48 144 R0
WINDOW 39 0 0 Left 0
SYMATTR InstName V1
SYMATTR Value ""
SYMATTR Value2 AC 1 0
TEXT 56 -64 Left 2 !.ac dec 1000 {1e-4} {1e3}
