Version 4
SHEET 1 880 680
WIRE 112 32 48 32
WIRE 256 32 192 32
WIRE 336 32 256 32
WIRE 480 32 416 32
WIRE 480 64 480 32
WIRE 48 80 48 32
WIRE 256 80 256 32
WIRE 48 192 48 160
WIRE 256 192 256 144
WIRE 256 192 48 192
WIRE 480 192 480 144
WIRE 480 192 256 192
WIRE 256 224 256 192
WIRE 128 448 48 448
WIRE 256 448 208 448
WIRE 336 448 256 448
WIRE 464 448 416 448
WIRE 256 480 256 448
WIRE 48 496 48 448
WIRE 256 496 256 480
WIRE 464 496 464 448
WIRE 256 576 256 560
WIRE 48 608 48 576
WIRE 256 608 256 576
WIRE 256 608 48 608
WIRE 464 608 464 560
WIRE 464 608 256 608
WIRE 256 640 256 608
FLAG 256 224 0
FLAG 256 640 0
SYMBOL ind 96 48 R270
WINDOW 0 32 56 VTop 2
WINDOW 3 5 56 VBottom 2
SYMATTR InstName L1
SYMATTR Value 1.5
SYMBOL ind 320 48 R270
WINDOW 0 32 56 VTop 2
WINDOW 3 5 56 VBottom 2
SYMATTR InstName L2
SYMATTR Value 0.5
SYMBOL cap 240 80 R0
SYMATTR InstName C1
SYMATTR Value {4/3}
SYMBOL res 464 48 R0
SYMATTR InstName R1
SYMATTR Value 1
SYMBOL voltage 48 64 R0
WINDOW 123 18 105 Left 2
WINDOW 39 0 0 Left 0
SYMATTR InstName V1
SYMATTR Value ""
SYMATTR Value2 AC 1
SYMBOL voltage 48 480 R0
WINDOW 123 18 105 Left 2
WINDOW 39 0 0 Left 0
SYMATTR InstName V2
SYMATTR Value ""
SYMATTR Value2 AC 1
SYMBOL res 224 432 R90
WINDOW 0 0 56 VBottom 2
WINDOW 3 32 56 VTop 2
SYMATTR InstName R2
SYMATTR Value 1.5
SYMBOL res 432 432 R90
WINDOW 0 0 56 VBottom 2
WINDOW 3 32 56 VTop 2
SYMATTR InstName R3
SYMATTR Value 0.5
SYMBOL cap 448 496 R0
SYMATTR InstName C2
SYMATTR Value 1
SYMBOL FDNR 256 528 R0
WINDOW 39 27 1 Left 2
SYMATTR InstName X1
SYMATTR SpiceLine D={4/3}
TEXT 32 -72 Left 2 !.ac dec 100 0.001 10
