Version 4
SHEET 1 1836 888
WIRE -400 -208 -448 -208
WIRE -320 -208 -400 -208
WIRE -192 -208 -256 -208
WIRE 16 -208 -112 -208
WIRE 240 -208 16 -208
WIRE 368 -192 304 -192
WIRE 496 -192 368 -192
WIRE 672 -192 576 -192
WIRE 768 -192 672 -192
WIRE 240 -176 176 -176
WIRE -400 -144 -400 -208
WIRE 672 -144 672 -192
WIRE 16 -128 16 -208
WIRE 16 -112 16 -128
WIRE 176 -112 176 -176
WIRE 368 -112 368 -192
WIRE 368 -112 176 -112
WIRE 16 -32 16 -48
WIRE -400 16 -400 -64
WIRE 16 16 16 -32
WIRE 672 16 672 -80
WIRE -128 112 -528 112
WIRE 480 112 -128 112
WIRE -528 240 -528 112
WIRE 480 240 480 112
WIRE 480 240 -528 240
WIRE -528 352 -528 240
WIRE -128 352 -128 112
WIRE -128 352 -528 352
WIRE 480 352 480 240
WIRE 480 352 -128 352
FLAG 16 16 0
FLAG -400 16 0
FLAG -448 -208 Vin
IOPIN -448 -208 In
FLAG 672 16 0
FLAG 768 -192 Vout
IOPIN 768 -192 Out
SYMBOL Opamps\\opamp 272 -128 M180
SYMATTR InstName U1
SYMBOL res -96 -224 R90
WINDOW 0 0 56 VBottom 2
WINDOW 3 32 56 VTop 2
SYMATTR InstName R
SYMATTR Value {L}
SYMBOL cap -256 -224 R90
WINDOW 0 0 32 VBottom 2
WINDOW 3 32 32 VTop 2
SYMATTR InstName C
SYMATTR Value {1/R1}
SYMBOL res 592 -208 R90
WINDOW 0 0 56 VBottom 2
WINDOW 3 32 56 VTop 2
SYMATTR InstName R2
SYMATTR Value {R2}
SYMBOL cap 656 -144 R0
SYMATTR InstName C2
SYMATTR Value {C2}
SYMBOL voltage -400 -160 R0
WINDOW 123 24 124 Left 2
WINDOW 39 0 0 Left 0
SYMATTR Value2 AC 1
SYMATTR InstName V1
SYMATTR Value ""
SYMBOL FDNR 16 -80 R0
WINDOW 39 38 0 Left 2
SYMATTR InstName X1
SYMATTR SpiceLine D={C1}
TEXT -416 -400 Left 2 !.include opamp.sub
TEXT -416 -352 Left 2 !.ac dec 1000 {w0/2/pi/1000} {w0/2/pi*1000}
TEXT -480 160 Left 2 ;Versión NORMALIZADA
TEXT -480 200 Left 2 !.param wz= 1 ww= 1
TEXT -72 160 Left 2 ;Versión DESNORMALIZADA
TEXT -72 200 Left 2 !#.param wz= 847.0226   ww= 2*pi*1500
TEXT 544 136 Left 2 !.param R1={R}
TEXT -480 272 Left 2 ;w0
TEXT -480 312 Left 2 !.param w0=1.2526*ww
TEXT -72 272 Left 2 ;wz= R1= R2= R
TEXT -72 312 Left 2 !.param R= wz
TEXT 544 336 Left 2 !.param C2={1/R/w0}
TEXT 544 176 Left 2 !.param L={R/w0}
TEXT 544 296 Left 2 !.param R2={R}
TEXT 544 216 Left 2 !.param C1={1/R/w0}
