* C:\Users\David\Desktop\UTN\4°\TC2\UTN_BA_TC2\TS3\TS3_LTSpice.asc
XU1 N003 N002 N003 opamp Aol=100K GBW=10Meg
R1 N001 Vin {R1}
C1 N002 0 {C1}
R2 Vout N003 {R2}
C2 Vout 0 {C2}
V1 Vin 0 AC 1
L N001 N002 {L}
.include opamp.sub
.ac dec 1000 {w0/2/pi/1000} {w0/2/pi*1000}
* Versión NORMALIZADA
#.param wz= 1 ww= 1
* Versión DESNORMALIZADA
.param wz= 847.0226   ww= 2*pi*1500
#.param wz= 100e-9   ww= 2*pi*1500
.param C1={1/R/w0}
* w0
.param w0=1.2526*ww
#.param q= 1
* wz= R1= R2= R
.param R= wz
#.param C= wz
.param C2={1/R/w0}
.param R1={R}
.param R2={R}
.param L={R/w0}
#.param C1={1/ww1/wz1}
#.param R1={L*w0/qq1*wz1}
#.param R2={1/w0*wz2}
#.param C2={1/ww2/wz2}
#.param L={1/w0**2/ww1*wz1}
* ¡¡¡Tomar distintas parametrizaciones para la FOS y SOS por más que el w0 sea el mismo!!!
.param wz1= 1
.param ww1= 1
#.param w0=ww1
.param qq1= 1
.param wz2= 1
.param ww2= 1
.backanno
.end
