Version 4
SHEET 1 880 680
WIRE 32 -256 -416 -256
WIRE 592 -256 112 -256
WIRE -416 -160 -416 -256
WIRE -368 -160 -416 -160
WIRE -256 -160 -288 -160
WIRE 240 -112 144 -112
WIRE 384 -112 320 -112
WIRE -416 -16 -416 -160
WIRE -368 -16 -416 -16
WIRE -256 -16 -256 -160
WIRE -256 -16 -304 -16
WIRE 384 0 384 -112
WIRE 384 0 320 0
WIRE 432 0 384 0
WIRE 592 0 592 -256
WIRE 592 0 512 0
WIRE -32 16 -80 16
WIRE 144 16 144 -112
WIRE 144 16 32 16
WIRE 256 16 144 16
WIRE 384 32 320 32
WIRE 384 96 384 32
WIRE -560 112 -656 112
WIRE -416 112 -416 -16
WIRE -416 112 -480 112
WIRE -368 112 -416 112
WIRE -256 128 -256 -16
WIRE -256 128 -304 128
WIRE -208 128 -256 128
WIRE -80 128 -80 16
WIRE -80 128 -128 128
WIRE -32 128 -80 128
WIRE -368 144 -416 144
WIRE 592 144 592 0
WIRE 592 144 32 144
WIRE 704 144 592 144
WIRE -32 160 -80 160
WIRE -656 176 -656 112
WIRE -416 224 -416 144
WIRE -80 224 -80 160
WIRE -656 336 -656 256
FLAG -80 224 0
FLAG -416 224 0
FLAG -656 336 0
FLAG 384 96 0
SYMBOL Opamps\\opamp -336 64 R0
SYMATTR InstName U1
SYMBOL Opamps\\opamp 0 208 M180
SYMATTR InstName U2
SYMBOL Opamps\\opamp 288 80 R180
SYMATTR InstName U3
SYMBOL res -112 112 R90
WINDOW 0 0 56 VBottom 2
WINDOW 3 32 56 VTop 2
SYMATTR InstName R4
SYMATTR Value 10k
SYMBOL res -464 96 R90
WINDOW 0 0 56 VBottom 2
WINDOW 3 32 56 VTop 2
SYMATTR InstName R1
SYMATTR Value 1k
SYMBOL cap -304 -32 R90
WINDOW 0 0 32 VBottom 2
WINDOW 3 32 32 VTop 2
SYMATTR InstName C1
SYMATTR Value 100µ
SYMBOL res -272 -176 R90
WINDOW 0 0 56 VBottom 2
WINDOW 3 32 56 VTop 2
SYMATTR InstName R2
SYMATTR Value 27k
SYMBOL cap 32 0 R90
WINDOW 0 0 32 VBottom 2
WINDOW 3 32 32 VTop 2
SYMATTR InstName C2
SYMATTR Value 100µ
SYMBOL res 336 -128 R90
WINDOW 0 0 56 VBottom 2
WINDOW 3 32 56 VTop 2
SYMATTR InstName R5
SYMATTR Value 1k
SYMBOL res 528 -16 R90
WINDOW 0 0 56 VBottom 2
WINDOW 3 32 56 VTop 2
SYMATTR InstName R6
SYMATTR Value 1k
SYMBOL res 128 -272 R90
WINDOW 0 0 56 VBottom 2
WINDOW 3 32 56 VTop 2
SYMATTR InstName R3
SYMATTR Value 10k
SYMBOL voltage -656 160 R0
WINDOW 123 24 124 Left 2
WINDOW 39 0 0 Left 0
SYMATTR InstName V1
SYMATTR Value ""
SYMATTR Value2 AC 1
TEXT -416 -392 Left 2 !.include opamp.sub
TEXT -632 256 Left 2 !.ac dec 1000 100u 1k
TEXT -656 80 Left 2 ;Vin
TEXT 632 120 Left 2 ;Vo
