Version 4
SHEET 1 880 680
WIRE -128 -48 -320 -48
WIRE -16 -48 -128 -48
WIRE 128 -48 64 -48
WIRE 192 -48 128 -48
WIRE 336 -48 272 -48
WIRE -320 16 -320 -48
WIRE 128 32 128 -48
WIRE 160 32 128 32
WIRE 336 48 336 -48
WIRE 336 48 224 48
WIRE -128 64 -128 -48
WIRE -64 64 -128 64
WIRE 64 64 0 64
WIRE 160 64 64 64
WIRE 64 112 64 64
WIRE 64 256 64 192
WIRE -320 272 -320 96
FLAG 64 256 0
FLAG -320 272 0
SYMBOL Opamps\\opamp 192 -16 R0
SYMATTR InstName U1
SYMBOL res 80 -64 R90
WINDOW 0 0 56 VBottom 2
WINDOW 3 32 56 VTop 2
SYMATTR InstName R1
SYMATTR Value 1k
SYMBOL res 288 -64 R90
WINDOW 0 0 56 VBottom 2
WINDOW 3 32 56 VTop 2
SYMATTR InstName R2
SYMATTR Value 1k
SYMBOL res 80 208 R180
WINDOW 0 36 76 Left 2
WINDOW 3 36 40 Left 2
SYMATTR InstName R3
SYMATTR Value 1k
SYMBOL cap 0 48 R90
WINDOW 0 0 32 VBottom 2
WINDOW 3 32 32 VTop 2
SYMATTR InstName C1
SYMATTR Value 10µ
SYMBOL voltage -320 0 R0
WINDOW 3 24 152 Left 2
WINDOW 123 24 180 Left 2
WINDOW 39 0 0 Left 0
SYMATTR InstName V1
SYMATTR Value SINE(0 10m 1000 0 0 0 10)
SYMATTR Value2 AC 1
TEXT -320 -144 Left 2 !.ac lin 1000 {0.01*f} {100*f}
TEXT 184 -192 Left 2 !.param f= 1/(2*PI)
TEXT 320 -128 Left 2 !.include opamp.sub
