Version 4
SHEET 1 2464 1004
WIRE -160 -416 -224 -416
WIRE -64 -416 -160 -416
WIRE 64 -416 0 -416
WIRE 224 -416 144 -416
WIRE 352 -416 224 -416
WIRE 464 -400 416 -400
WIRE 512 -400 464 -400
WIRE 704 -400 592 -400
WIRE 816 -400 704 -400
WIRE 352 -384 288 -384
WIRE 704 -352 704 -400
WIRE -160 -336 -160 -416
WIRE 288 -320 288 -384
WIRE 464 -320 464 -400
WIRE 464 -320 288 -320
WIRE 704 -176 704 -288
WIRE -160 -160 -160 -256
WIRE 224 -160 224 -416
WIRE 224 -160 144 -160
WIRE 224 -128 224 -160
WIRE 144 -48 144 -160
WIRE 144 -48 96 -48
WIRE 224 -48 224 -64
WIRE 528 -48 224 -48
WIRE 32 -32 -16 -32
WIRE 144 -16 96 -16
WIRE 224 -16 224 -48
WIRE 144 96 144 -16
WIRE 224 96 224 64
WIRE 224 96 144 96
WIRE 320 96 224 96
WIRE 224 128 224 96
WIRE 320 208 320 96
WIRE 384 208 320 208
WIRE 528 224 528 -48
WIRE 528 224 448 224
WIRE -16 240 -16 -32
WIRE 224 240 224 208
WIRE 224 240 -16 240
WIRE 384 240 320 240
WIRE 224 272 224 240
WIRE 224 400 224 352
WIRE 320 400 320 240
WIRE 320 400 224 400
WIRE 224 448 224 400
WIRE 224 464 224 448
WIRE 224 576 224 512
FLAG -224 -416 Vin
IOPIN -224 -416 In
FLAG 816 -400 Vout
IOPIN 816 -400 Out
FLAG 704 -176 0
FLAG -160 -160 0
FLAG 224 576 0
SYMBOL Opamps\\opamp 64 32 R180
SYMATTR InstName U1
SYMBOL Opamps\\opamp 416 160 R0
SYMATTR InstName U2
SYMBOL cap 208 -64 M180
WINDOW 0 24 56 Left 2
WINDOW 3 24 8 Left 2
SYMATTR InstName C1
SYMATTR Value {C1}
SYMBOL cap 240 448 M0
SYMATTR InstName C5
SYMATTR Value {C5}
SYMBOL res 208 80 M180
WINDOW 0 36 76 Left 2
WINDOW 3 36 40 Left 2
SYMATTR InstName R2
SYMATTR Value {R2}
SYMBOL res 208 224 M180
WINDOW 0 36 76 Left 2
WINDOW 3 36 40 Left 2
SYMATTR InstName R3
SYMATTR Value {R3}
SYMBOL res 208 368 M180
WINDOW 0 36 76 Left 2
WINDOW 3 36 40 Left 2
SYMATTR InstName R4
SYMATTR Value {R4}
SYMBOL cap 0 -432 R90
WINDOW 0 0 32 VBottom 2
WINDOW 3 32 32 VTop 2
SYMATTR InstName C_C
SYMATTR Value {C_C}
SYMBOL res 160 -432 R90
WINDOW 0 0 56 VBottom 2
WINDOW 3 32 56 VTop 2
SYMATTR InstName R_R
SYMATTR Value {L_L}
SYMBOL Opamps\\opamp 384 -336 M180
SYMATTR InstName U3
SYMBOL res 608 -416 R90
WINDOW 0 0 56 VBottom 2
WINDOW 3 32 56 VTop 2
SYMATTR InstName RR
SYMATTR Value {RR}
SYMBOL cap 688 -352 R0
SYMATTR InstName CC
SYMATTR Value {CC}
SYMBOL voltage -160 -352 R0
WINDOW 123 24 44 Left 2
WINDOW 39 0 0 Left 0
SYMATTR Value2 AC 1
SYMATTR InstName V1
SYMATTR Value ""
TEXT 1096 -400 Left 2 !.inc opamp.sub
TEXT -32 704 Left 2 ;Z= (Y2*Y4) / (Y1*Y3*Y5)\nZ= (G2*G4) / (s*C1*G3*s*C5)\nZ= 1 / {s^2 * [(C1*C5*G3) / (G2*G4)]}\nZ= 1 / (s^2 * D)\n \nD= (C1*C5*G3) / (G2*G4)\nD= (C*C*G) / (G*G)\nD= C^2 / G\nD= R*C^2
TEXT 1096 -208 Left 2 !#.param wz= 1\n#.param ww= 1
TEXT 1096 -248 Left 2 ;Versión NORMALIZADA
TEXT 1096 -104 Left 2 ;Versión DESNORMALIZADA
TEXT 1096 -64 Left 2 !.param wz= 100e-9\n.param ww= 2*pi*1500
TEXT 1096 64 Left 2 !.param w0= 1.2526*ww
TEXT 1096 152 Left 2 !.param C= wz
TEXT 1096 32 Left 2 ;w0
TEXT 1096 120 Left 2 ;wz= C1= C5= C
TEXT 1096 240 Left 2 !.param C1= {1/C/w0}\n.param R2= {1*C}\n.param R3= {1*C}\n.param R4= {1*C}\n.param C5= {1/C/w0}\n \n#.param R_R= {0.7983*C}\n.param L_L= {0.6373*w0/C}\n.param C_C= {1/w0/C}\n \n.param RR= {0.7983*C}\n.param CC= {1/w0/C}
TEXT 1096 -360 Left 2 !.ac dec 1000 {w0/2/pi/1000} {w0/2/pi*1000}
