* C:\Users\David\Desktop\UTN\4°\TC2\UTN_BA_TC2\TS4\TS4_LTSpice_Girador.asc
XU2 N006 Vout N004 opamp Aol=100K GBW=10Meg
XU3 N006 N007 N005 opamp Aol=100K GBW=10Meg
R3 N004 N006 1
R4 N007 N004 1
CC1 N001 Vin 1.2527
RR1 0 N001 1
XU1 N002 N001 N002 opamp Aol=100K GBW=10Meg
RR2 N003 N002 1
CC2 N003 Vout 1.2525
V1 Vin 0 AC 1
R1 Vout N005 1
R5 N007 0 1
C2 N005 N006 1.2525
.inc opamp.sub
* Z= (Z1*Z3*Z5) / (Z2*Z4)\nZ= (R*R*R)/ [(1/sC)*R]\nZ=  s*C*R^2\nZ=  s*Leq\nLeq= C*R^2
#.param wz= 1
#.param ww= 1
* Versión NORMALIZADA
* Versión DESNORMALIZADA
#.param wz= 100e-9
#.param ww= 2*pi*1500
.param w0= 0.7984
#.param C= wz
* w0
* wz= C1= C5= C
#.param C1= {1/C/w0}
#.param R2= {1*C}
#.param R3= {1*C}
#.param R4= {1*C}
#.param C5= {1/C/w0}
#.param R_R= {0.7983*C}
#.param L_L= {0.6373*w0/C}
#.param C_C= {1/w0/C}
#.param RR= {0.7983*C}
#.param CC= {1/w0/C}
.ac dec 1000 {w0/2/pi/1000} {w0/2/pi*1000}
.backanno
.end
