Version 4
SHEET 1 1244 680
WIRE -688 32 -784 32
WIRE -592 32 -688 32
WIRE -416 32 -512 32
WIRE -288 32 -416 32
WIRE -176 32 -288 32
WIRE -688 112 -688 32
WIRE -416 112 -416 32
WIRE -288 112 -288 32
WIRE -688 256 -688 192
WIRE -416 256 -416 176
WIRE -416 256 -688 256
WIRE -288 256 -288 192
WIRE -288 256 -416 256
WIRE -688 304 -688 256
FLAG -688 304 0
FLAG -784 32 Vin_1
IOPIN -784 32 In
FLAG -176 32 Vout_1
IOPIN -176 32 Out
SYMBOL voltage -688 96 R0
WINDOW 123 26 93 Left 2
WINDOW 39 0 0 Left 0
SYMATTR Value2 AC 1
SYMATTR InstName V1
SYMATTR Value ""
SYMBOL res -496 16 R90
WINDOW 0 0 56 VBottom 2
WINDOW 3 32 56 VTop 2
SYMATTR InstName R1
SYMATTR Value {R}
SYMBOL cap -432 112 R0
SYMATTR InstName C1
SYMATTR Value {C}
SYMBOL ind -304 96 R0
SYMATTR InstName L1
SYMATTR Value {L}
TEXT -856 -96 Left 2 !.ac dec 1000 {w0/2/pi/100} {w0/2/pi*100}
TEXT -856 -128 Left 2 !.lib opamp.sub
TEXT -1224 -128 Left 2 !.param ww= 1\n#.param= 2*pi*22e3\n \n.param w0= ww\n \n.param C= 1\n#.param C= 1/wz/ww\n \n.param wz= C\n \n.param Q= 8.0128\n \n.param R= {Q/wz/w0}\n.param L= {1/wz/w0**2}
