Version 4
SHEET 1 1244 680
WIRE -864 -240 -960 -240
WIRE -768 -240 -864 -240
WIRE -592 -240 -688 -240
WIRE -464 -240 -592 -240
WIRE -352 -240 -464 -240
WIRE -864 -160 -864 -240
WIRE -592 -160 -592 -240
WIRE -464 -160 -464 -240
WIRE -864 -16 -864 -80
WIRE -592 -16 -592 -96
WIRE -592 -16 -864 -16
WIRE -464 -16 -464 -80
WIRE -464 -16 -592 -16
WIRE -864 32 -864 -16
FLAG -864 32 0
FLAG -960 -240 Vin_3
IOPIN -960 -240 In
FLAG -352 -240 Vout_3
IOPIN -352 -240 Out
SYMBOL voltage -864 -176 R0
WINDOW 123 26 93 Left 2
WINDOW 39 0 0 Left 0
SYMATTR Value2 AC 1
SYMATTR InstName V3
SYMATTR Value ""
SYMBOL res -672 -256 R90
WINDOW 0 0 56 VBottom 2
WINDOW 3 32 56 VTop 2
SYMATTR InstName R3
SYMATTR Value {R}
SYMBOL cap -608 -160 R0
SYMATTR InstName C3
SYMATTR Value {C}
SYMBOL ind -480 -176 R0
SYMATTR InstName L3
SYMATTR Value {L}
TEXT -1120 160 Left 2 !.ac dec 1000 {w0/2/pi/100} {w0/2/pi*100}
TEXT -1120 128 Left 2 !.lib opamp.sub
TEXT -504 120 Left 2 !.param Q= 15.9558\n \n.param ww= 1\n.param w0= 0.9031*ww\n \n.param C= 1 \n.param wz= C\n.param R= {Q/wz/w0}\n.param L= {1/wz/w0**2}\n \n#.param= 2*pi*22e3\n#.param C= 1/wz/ww
